# generated using pymatgen
data_LiIn2CuSe4
_symmetry_space_group_name_H-M   'P 1'
_cell_length_a   5.95172000
_cell_length_b   5.95172000
_cell_length_c   11.82140600
_cell_angle_alpha   90.00000000
_cell_angle_beta   90.00000000
_cell_angle_gamma   90.00000000
_symmetry_Int_Tables_number   1
_chemical_formula_structural   LiIn2CuSe4
_chemical_formula_sum   'Li2 In4 Cu2 Se8'
_cell_volume   418.74932143
_cell_formula_units_Z   2
loop_
 _symmetry_equiv_pos_site_id
 _symmetry_equiv_pos_as_xyz
  1  'x, y, z'
loop_
 _atom_type_symbol
 _atom_type_oxidation_number
  Li+  1.0
  In3+  3.0
  Cu+  1.0
  Se2-  -2.0
loop_
 _atom_site_type_symbol
 _atom_site_label
 _atom_site_symmetry_multiplicity
 _atom_site_fract_x
 _atom_site_fract_y
 _atom_site_fract_z
 _atom_site_occupancy
  Li+  Li0  1  0.50000000  0.00000000  0.25000000  1
  Li+  Li1  1  0.00000000  0.50000000  0.75000000  1
  In3+  In2  1  0.50000000  0.50000000  0.00000000  1
  In3+  In3  1  0.00000000  0.50000000  0.25000000  1
  In3+  In4  1  0.00000000  0.00000000  0.50000000  1
  In3+  In5  1  0.50000000  0.00000000  0.75000000  1
  Cu+  Cu6  1  0.00000000  0.00000000  0.00000000  1
  Cu+  Cu7  1  0.50000000  0.50000000  0.50000000  1
  Se2-  Se8  1  0.27006300  0.25871800  0.37858100  1
  Se2-  Se9  1  0.72993700  0.74128200  0.37858100  1
  Se2-  Se10  1  0.24128200  0.77006300  0.12141900  1
  Se2-  Se11  1  0.75871800  0.22993700  0.12141900  1
  Se2-  Se12  1  0.77006300  0.75871800  0.87858100  1
  Se2-  Se13  1  0.22993700  0.24128200  0.87858100  1
  Se2-  Se14  1  0.74128200  0.27006300  0.62141900  1
  Se2-  Se15  1  0.25871800  0.72993700  0.62141900  1
